SOLVER= RANS
KIND_TURB_MODEL= SST
AXISYMMETRIC= YES

MATH_PROBLEM= DIRECT
RESTART_SOL= NO

MACH_NUMBER= 0.2
AOA= 0.0
SIDESLIP_ANGLE= 0.0
FREESTREAM_TEMPERATURE= 300.0

REYNOLDS_NUMBER= 2000000.0
REYNOLDS_LENGTH= 1.0

REF_ORIGIN_MOMENT_X= 0.25
REF_ORIGIN_MOMENT_Y= 0.0
REF_ORIGIN_MOMENT_Z= 0.0
REF_LENGTH= 1.0
REF_AREA= 2.0

% BOUNDARIES
MARKER_INLET= ( inlet, 302.4, 118309.784, 1.0, 0.0, 0.0 )
MARKER_OUTLET= ( outlet, 115056.0 )
MARKER_SYM= ( symmetry )
MARKER_HEATFLUX= ( wall, 0.0 )

MARKER_INLET_TURBULENT= ( inlet, 0.05, 15 )

NUM_METHOD_GRAD= WEIGHTED_LEAST_SQUARES

% FLOW SOLVER
CONV_NUM_METHOD_FLOW= ROE
MUSCL_FLOW= YES
SLOPE_LIMITER_FLOW= VENKATAKRISHNAN
TIME_DISCRE_FLOW= EULER_IMPLICIT

CONV_NUM_METHOD_TURB= SCALAR_UPWIND
TIME_DISCRE_TURB= EULER_IMPLICIT
MUSCL_TURB= NO

% LINEAR SOLVER
LINEAR_SOLVER= FGMRES
LINEAR_SOLVER_PREC= ILU
LINEAR_SOLVER_ITER= 8
LINEAR_SOLVER_ERROR= 1E-5

CFL_NUMBER= 0.5
CFL_ADAPT= NO

ITER= 30000

CONV_FIELD= RMS_DENSITY
CONV_RESIDUAL_MINVAL= -6
CONV_STARTITER= 10

MESH_FILENAME= jet.su2
MESH_FORMAT= SU2

CONV_FILENAME= history
VOLUME_FILENAME= flow
SURFACE_FILENAME= surface_flow

OUTPUT_WRT_FREQ= 300

SCREEN_OUTPUT= (INNER_ITER, RMS_DENSITY)
