SOLVER= RANS
KIND_TURB_MODEL= SST
AXISYMMETRIC= YES
MATH_PROBLEM= DIRECT
RESTART_SOL= NO

MACH_NUMBER= 0.12
FREESTREAM_TEMPERATURE= 300.0

REYNOLDS_NUMBER= 50000
REYNOLDS_LENGTH= 0.01

FLUID_MODEL= IDEAL_GAS
GAMMA_VALUE= 1.4
GAS_CONSTANT= 287.058

VISCOSITY_MODEL= CONSTANT_VISCOSITY
MU_CONSTANT= 1.8E-5

PRANDTL_LAM= 0.72
PRANDTL_TURB= 0.9

NUM_METHOD_GRAD= WEIGHTED_LEAST_SQUARES
CONV_NUM_METHOD_FLOW= AUSM
CONV_NUM_METHOD_TURB= SCALAR_UPWIND

MUSCL_FLOW= NO
SLOPE_LIMITER_FLOW= NONE

TIME_DISCRE_FLOW= EULER_IMPLICIT
TIME_DISCRE_TURB= EULER_IMPLICIT

CFL_NUMBER= 0.1
CFL_ADAPT= YES
CFL_ADAPT_PARAM= (0.5, 1.2, 0.1, 5.0)

ITER= 20000

MARKER_INLET= ( inlet, 300.0, 101800.0, 1.0, 0.0, 0.0 )
MARKER_OUTLET= ( outlet, 101325.0 )
MARKER_SYM= ( symmetry )
MARKER_ISOTHERMAL= ( wall, 300.0 )
MARKER_FAR= ( farfield, 101325.0 )

MARKER_INLET_TURBULENT= ( inlet, 0.02, 3.0 )

MESH_FILENAME= jet.su2

CONV_FIELD= RMS_DENSITY
CONV_RESIDUAL_MINVAL= -5
CONV_STARTITER= 50

OUTPUT_FILES= (RESTART, PARAVIEW)

VOLUME_OUTPUT= (PRIMITIVE, SPEEDSOUND)
HISTORY_OUTPUT= (RMS_RES, AVG_SOUNDSPEED)
SCREEN_OUTPUT= (INNER_ITER, RMS_DENSITY, AVG_SOUNDSPEED)

OUTPUT_WRT_FREQ= 200
