SOLVER= RANS
KIND_TURB_MODEL= SA
MATH_PROBLEM= DIRECT
RESTART_SOL= NO
SYSTEM_MEASUREMENTS= SI

MACH_NUMBER= 0.2
AOA= 0.0
FREESTREAM_OPTION= TEMPERATURE_FS
FREESTREAM_PRESSURE= 101325.0
FREESTREAM_TEMPERATURE= 300.0
REYNOLDS_NUMBER= 8.0E5
REYNOLDS_LENGTH= 1.0

FLUID_MODEL= STANDARD_AIR
VISCOSITY_MODEL= SUTHERLAND
PRANDTL_LAM= 0.72
PRANDTL_TURB= 0.9

NUM_METHOD_GRAD= WEIGHTED_LEAST_SQUARES
CONV_NUM_METHOD_FLOW= ROE
MUSCL_FLOW= YES
TIME_DISCRE_FLOW= EULER_IMPLICIT
TIME_DISCRE_TURB= EULER_IMPLICIT

CFL_NUMBER= 5.0
ITER= 2500

MARKER_FAR= ( farfield )
MARKER_PYTHON_CUSTOM= ( plate )
MARKER_ISOTHERMAL= ( plate, 300.0 )

MARKER_MONITORING= ( plate )
MARKER_PLOTTING= ( plate )

MESH_FILENAME= 2D_FlatPlate_Rounded.su2
VOLUME_FILENAME= flow
SURFACE_FILENAME= surface

SCREEN_OUTPUT= (INNER_ITER, RMS_DENSITY, RMS_NU_TILDE)
CONV_RESIDUAL_MINVAL= -8
